22

N            1.40704587900135       -1.26605342570352       -1.93713467409179
H            1.85007201421630       -0.46824072982214       -1.50918243052625
C           -0.03362432546857       -1.39269245802942       -1.74003582842655
H           -0.56857010176787       -1.01764444934161       -2.61263468250045
C           -0.44096297533149       -2.84337810147034       -1.48899734665750
C           -0.47991761435962       -0.55230954626779       -0.55520223211488
H           -1.51566046566003       -2.89187356075711       -1.32273881899144
H           -0.18116520826015       -3.45187807497712       -2.34920432497853
H            0.06989722371032       -3.23299000317032       -0.60872832970057
O           -1.56668254604022        0.00552120972609       -0.52884675232746
C            1.99245341935793       -1.73097165993527       -3.08869240465405
C            3.42884245712259       -1.30660069862823       -3.28712667180899
H            3.87721964236570       -0.88843123398009       -2.38921454082853
H            3.46548547276870       -0.56495308538085       -4.08311790088440
H            4.00253375919125       -2.16970939081186       -3.61210069945494
O            1.40187969243713       -2.43826112894254       -3.89034129099619
N            0.40869198564818       -0.49101709566849        0.47992425165481
H            1.15591901840578       -1.16524842772002        0.48740266863377
C            0.00723492497865        0.11692276228581        1.73426298331318
H            0.88822128835955        0.28499001962877        2.34645659039969
H           -0.47231557974936        1.06737634467405        1.52286683213051
H           -0.70199988222212       -0.50485938337212        2.28058248842892
