
          12042412223D

 36  0  0     0  0            999 V2000
    2.8373   -0.4554    0.1278 N   0  0  0  0  0  0  0  0  0  0  0  0
    1.4762   -0.0098   -0.0008 C   0  0  0  0  0  0  0  0  0  0  0  0
    1.5034    1.4502   -0.4152 C   0  0  0  0  0  0  0  0  0  0  0  0
    2.4371    2.1858   -0.1007 O   0  0  0  0  0  0  0  0  0  0  0  0
    0.7067   -0.1645    1.3303 C   0  0  0  0  0  0  0  0  0  0  0  0
    3.5347    0.2623    0.2509 H   0  0  0  0  0  0  0  0  0  0  0  0
    0.9818   -0.6160   -0.7597 H   0  0  0  0  0  0  0  0  0  0  0  0
    0.8142   -1.2074    1.6330 H   0  0  0  0  0  0  0  0  0  0  0  0
    1.1923    0.4629    2.0802 H   0  0  0  0  0  0  0  0  0  0  0  0
    3.1421   -1.7757    0.0956 C   0  0  0  0  0  0  0  0  0  0  0  0
    2.2820   -2.6411   -0.0488 O   0  0  0  0  0  0  0  0  0  0  0  0
    0.4260    1.8564   -1.1234 N   0  0  0  0  0  0  0  0  0  0  0  0
   -0.3457    1.2104   -1.1901 H   0  0  0  0  0  0  0  0  0  0  0  0
    0.1875    3.2588   -1.3902 C   0  0  0  0  0  0  0  0  0  0  0  0
   -0.3630    3.3656   -2.3206 H   0  0  0  0  0  0  0  0  0  0  0  0
   -0.3745    3.7313   -0.5832 H   0  0  0  0  0  0  0  0  0  0  0  0
    1.1492    3.7539   -1.4789 H   0  0  0  0  0  0  0  0  0  0  0  0
    4.6056   -2.1120    0.2450 C   0  0  0  0  0  0  0  0  0  0  0  0
    4.7278   -2.7450    1.1207 H   0  0  0  0  0  0  0  0  0  0  0  0
    5.2382   -1.2335    0.3435 H   0  0  0  0  0  0  0  0  0  0  0  0
    4.9178   -2.6864   -0.6238 H   0  0  0  0  0  0  0  0  0  0  0  0
   -0.7267    0.2026    1.1760 C   0  0  0  0  0  0  0  0  0  0  0  0
   -1.3786    1.2950    1.7061 C   0  0  0  0  0  0  0  0  0  0  0  0
   -1.6679   -0.4501    0.3182 C   0  0  0  0  0  0  0  0  0  0  0  0
   -1.0129    2.0443    2.3895 H   0  0  0  0  0  0  0  0  0  0  0  0
   -2.8776    0.2948    0.3691 C   0  0  0  0  0  0  0  0  0  0  0  0
   -1.6011   -1.6009   -0.4890 C   0  0  0  0  0  0  0  0  0  0  0  0
   -3.3603    2.0202    1.5004 H   0  0  0  0  0  0  0  0  0  0  0  0
   -2.7262   -1.9665   -1.2106 C   0  0  0  0  0  0  0  0  0  0  0  0
   -0.6958   -2.1952   -0.5297 H   0  0  0  0  0  0  0  0  0  0  0  0
   -2.6651    1.3512    1.2199 N   0  0  0  0  0  0  0  0  0  0  0  0
   -4.0124   -0.0785   -0.3554 C   0  0  0  0  0  0  0  0  0  0  0  0
   -3.9170   -1.2146   -1.1456 C   0  0  0  0  0  0  0  0  0  0  0  0
   -4.9313    0.4911   -0.3049 H   0  0  0  0  0  0  0  0  0  0  0  0
   -4.7760   -1.5323   -1.7208 H   0  0  0  0  0  0  0  0  0  0  0  0
   -2.6960   -2.8499   -1.8337 H   0  0  0  0  0  0  0  0  0  0  0  0
M  END
